data_CHNOZn
_cell_length_a               16.6814
_cell_length_b               25
_cell_length_c               16.6814
_cell_angle_alpha            90
_cell_angle_beta             90
_cell_angle_gamma            90
_symmetry_space_group_name_H-M    'P1'
_symmetry_Int_Tables_number       1
_symmetry_cell_setting            triclinic
loop_
_symmetry_equiv_pos_as_xyz
x,y,z

loop_
_atom_site_label
_atom_site_type_symbol
_atom_site_occupancy
_atom_site_fract_x
_atom_site_fract_y
_atom_site_fract_z
_atom_site_U_iso_or_equiv
C1  C  1.0000  0.89035  0.72526  0.10959  0.0000
C2  C  1.0000  0.17271  0.72506  0.17272  0.0000
C3  C  1.0000  0.82772  0.19956  0.93407  0.0000
C4  C  1.0000  0.17228  0.19956  0.06593  0.0000
C5  C  1.0000  0.32764  0.72586  0.43416  0.0000
C6  C  1.0000  0.67236  0.72586  0.56584  0.0000
C7  C  1.0000  0.93409  0.20098  0.17236  0.0000
C8  C  1.0000  0.06591  0.20098  0.82764  0.0000
C9  C  1.0000  0.43396  0.72647  0.67228  0.0000
C10  C  1.0000  0.56604  0.72647  0.32772  0.0000
C11  C  1.0000  0.82778  0.20028  0.06597  0.0000
C12  C  1.0000  0.17222  0.20028  0.93403  0.0000
C13  C  1.0000  0.32762  0.72580  0.56588  0.0000
C14  C  1.0000  0.67238  0.72580  0.43412  0.0000
C15  C  1.0000  0.93413  0.20025  0.82758  0.0000
C16  C  1.0000  0.06587  0.20025  0.17242  0.0000
C17  C  1.0000  0.43400  0.72656  0.32774  0.0000
C18  C  1.0000  0.56600  0.72656  0.67226  0.0000
C19  C  1.0000  0.75550  0.72626  0.54093  0.0000
C20  C  1.0000  0.24450  0.72626  0.45907  0.0000
C21  C  1.0000  0.25532  0.19901  0.04092  0.0000
C22  C  1.0000  0.74468  0.19901  0.95908  0.0000
C23  C  1.0000  0.54100  0.72685  0.24473  0.0000
C24  C  1.0000  0.45900  0.72685  0.75527  0.0000
C25  C  1.0000  0.04100  0.19989  0.74455  0.0000
C26  C  1.0000  0.95900  0.19989  0.25545  0.0000
C27  C  1.0000  0.75551  0.72622  0.45905  0.0000
C28  C  1.0000  0.24449  0.72622  0.54095  0.0000
C29  C  1.0000  0.25526  0.19943  0.95898  0.0000
C30  C  1.0000  0.74474  0.19943  0.04102  0.0000
C31  C  1.0000  0.70899  0.72576  0.70887  0.0000
C32  C  1.0000  0.29101  0.72576  0.29113  0.0000
C33  C  1.0000  0.32720  0.20141  0.32726  0.0000
C34  C  1.0000  0.67280  0.20141  0.67274  0.0000
C35  C  1.0000  0.50000  0.51495  0.50000  0.0000
C36  C  1.0000  0.50000  0.45589  0.50000  0.0000
C37  C  1.0000  -0.00000  0.47033  -0.00000  0.0000
C38  C  1.0000  -0.00000  0.41125  -0.00000  0.0000
C39  C  1.0000  0.00598  0.55510  0.06917  0.0000
C40  C  1.0000  0.99402  0.55510  0.93083  0.0000
C41  C  1.0000  0.00639  0.49952  0.07163  0.0000
C42  C  1.0000  0.99361  0.49952  0.92837  0.0000
C43  C  1.0000  0.05019  0.38213  0.05157  0.0000
C44  C  1.0000  0.94981  0.38213  0.94843  0.0000
C45  C  1.0000  0.04835  0.32649  0.04933  0.0000
C46  C  1.0000  0.95165  0.32649  0.95067  0.0000
C47  C  1.0000  0.50234  0.59971  0.56905  0.0000
C48  C  1.0000  0.49766  0.59971  0.43095  0.0000
C49  C  1.0000  0.54099  0.72690  0.75526  0.0000
C50  C  1.0000  0.50278  0.54407  0.57189  0.0000
C51  C  1.0000  0.54744  0.42670  0.55403  0.0000
C52  C  1.0000  0.45256  0.42670  0.44597  0.0000
C53  C  1.0000  0.54598  0.37113  0.55205  0.0000
C54  C  1.0000  0.45402  0.37113  0.44795  0.0000
C55  C  1.0000  0.79099  0.20068  0.20904  0.0000
C56  C  1.0000  0.20901  0.20068  0.79096  0.0000
C57  C  1.0000  0.67262  0.19996  0.32753  0.0000
C58  C  1.0000  0.32738  0.19996  0.67247  0.0000
C59  C  1.0000  0.29095  0.72573  0.70893  0.0000
C60  C  1.0000  0.70905  0.72573  0.29107  0.0000
C61  C  1.0000  0.17267  0.72535  0.82738  0.0000
C62  C  1.0000  0.82733  0.72535  0.17262  0.0000
C63  C  1.0000  0.79112  0.20012  0.79108  0.0000
C64  C  1.0000  0.20888  0.20012  0.20892  0.0000
C65  C  1.0000  0.49722  0.54407  0.42811  0.0000
C66  C  1.0000  0.45901  0.72690  0.24474  0.0000
C67  C  1.0000  0.82729  0.72506  0.82728  0.0000
C68  C  1.0000  0.95910  0.19946  0.74448  0.0000
C69  C  1.0000  0.70169  0.15260  0.70192  0.0000
C70  C  1.0000  0.26084  0.77406  0.26100  0.0000
C71  C  1.0000  0.73916  0.77406  0.73900  0.0000
C72  C  1.0000  0.79723  0.67675  0.79746  0.0000
C73  C  1.0000  0.20277  0.67675  0.20254  0.0000
C74  C  1.0000  0.76200  0.24889  0.76167  0.0000
C75  C  1.0000  0.23800  0.24889  0.23833  0.0000
C76  C  1.0000  0.70246  0.15168  0.29739  0.0000
C77  C  1.0000  0.29754  0.15168  0.70261  0.0000
C78  C  1.0000  0.73907  0.77411  0.26107  0.0000
C79  C  1.0000  0.26093  0.77411  0.73893  0.0000
C80  C  1.0000  0.64617  0.72593  0.35401  0.0000
C81  C  1.0000  0.35383  0.72593  0.64599  0.0000
C82  C  1.0000  0.04090  0.19946  0.25552  0.0000
C83  C  1.0000  0.29831  0.15260  0.29808  0.0000
C84  C  1.0000  0.39033  0.19941  0.60931  0.0000
C85  C  1.0000  0.79747  0.67696  0.20234  0.0000
C86  C  1.0000  0.23909  0.24897  0.76066  0.0000
C87  C  1.0000  0.76091  0.24897  0.23934  0.0000
C88  C  1.0000  0.14598  0.19980  0.14607  0.0000
C89  C  1.0000  0.85402  0.19980  0.85393  0.0000
C90  C  1.0000  0.39020  0.20221  0.39025  0.0000
C91  C  1.0000  0.60980  0.20221  0.60975  0.0000
C92  C  1.0000  0.64611  0.72605  0.64594  0.0000
C93  C  1.0000  0.35389  0.72605  0.35406  0.0000
C94  C  1.0000  0.89040  0.72471  0.89022  0.0000
C95  C  1.0000  0.10960  0.72471  0.10978  0.0000
C96  C  1.0000  0.85397  0.20093  0.14612  0.0000
C97  C  1.0000  0.14603  0.20093  0.85388  0.0000
C98  C  1.0000  0.60967  0.19941  0.39069  0.0000
C99  C  1.0000  0.20253  0.67696  0.79766  0.0000
C100  C  1.0000  0.76057  0.15197  0.76083  0.0000
C101  C  1.0000  0.10965  0.72526  0.89041  0.0000
C102  C  1.0000  0.73844  0.67711  0.73848  0.0000
C103  C  1.0000  0.20203  0.77392  0.79781  0.0000
C104  C  1.0000  0.23943  0.15197  0.23917  0.0000
C105  C  1.0000  0.26156  0.67711  0.26152  0.0000
C106  C  1.0000  0.76132  0.15203  0.23846  0.0000
C107  C  1.0000  0.23868  0.15203  0.76154  0.0000
C108  C  1.0000  0.73868  0.67715  0.26135  0.0000
C109  C  1.0000  0.26132  0.67715  0.73865  0.0000
C110  C  1.0000  0.70200  0.24864  0.29828  0.0000
C111  C  1.0000  0.79797  0.77392  0.20219  0.0000
C112  C  1.0000  0.20192  0.77371  0.20213  0.0000
C113  C  1.0000  0.29800  0.24864  0.70172  0.0000
C114  C  1.0000  0.79808  0.77371  0.79787  0.0000
C115  C  1.0000  0.29683  0.24952  0.29718  0.0000
C116  C  1.0000  0.70317  0.24952  0.70282  0.0000
H1  H  1.0000  0.95264  0.88818  0.00029  0.0000
H2  H  1.0000  0.32020  0.28719  0.32083  0.0000
H3  H  1.0000  0.67980  0.28719  0.67917  0.0000
H4  H  1.0000  0.49921  0.85141  0.54672  0.0000
H5  H  1.0000  0.71577  0.81197  0.28458  0.0000
H6  H  1.0000  0.19301  0.72677  0.41883  0.0000
H7  H  1.0000  0.21636  0.11395  0.21601  0.0000
H8  H  1.0000  0.78364  0.11395  0.78399  0.0000
H9  H  1.0000  0.50079  0.85141  0.45328  0.0000
H10  H  1.0000  0.82256  0.81096  0.82197  0.0000
H11  H  1.0000  0.17744  0.81096  0.17803  0.0000
H12  H  1.0000  0.04736  0.88818  0.99971  0.0000
H13  H  1.0000  0.49649  0.52373  0.36997  0.0000
H14  H  1.0000  0.80701  0.72670  0.41881  0.0000
H15  H  1.0000  0.49638  0.62393  0.37616  0.0000
H16  H  1.0000  0.09181  0.40251  0.09213  0.0000
H17  H  1.0000  0.90819  0.40251  0.90787  0.0000
H18  H  1.0000  0.08708  0.30235  0.08820  0.0000
H19  H  1.0000  0.91292  0.30235  0.91180  0.0000
H20  H  1.0000  0.01033  0.57927  0.12375  0.0000
H21  H  1.0000  0.98967  0.57927  0.87625  0.0000
H22  H  1.0000  0.01010  0.47902  0.12951  0.0000
H23  H  1.0000  0.98990  0.47902  0.87049  0.0000
H24  H  1.0000  0.21497  0.11437  0.78536  0.0000
H25  H  1.0000  0.78503  0.11437  0.21464  0.0000
H26  H  1.0000  0.71509  0.63943  0.28512  0.0000
H27  H  1.0000  0.28491  0.63943  0.71488  0.0000
H28  H  1.0000  0.58674  0.44721  0.59666  0.0000
H29  H  1.0000  0.41326  0.44721  0.40334  0.0000
H30  H  1.0000  0.58251  0.34675  0.59255  0.0000
H31  H  1.0000  0.41749  0.34675  0.40745  0.0000
H32  H  1.0000  0.50362  0.62393  0.62384  0.0000
H33  H  1.0000  0.50351  0.52373  0.63003  0.0000
H34  H  1.0000  0.95329  0.07519  0.99925  0.0000
H35  H  1.0000  0.04671  0.07519  0.00075  0.0000
H36  H  1.0000  0.67784  0.28592  0.32259  0.0000
H37  H  1.0000  0.28423  0.81197  0.71542  0.0000
H38  H  1.0000  0.30687  0.19829  0.08110  0.0000
H39  H  1.0000  0.41879  0.72717  0.80680  0.0000
H40  H  1.0000  0.21573  0.28690  0.78391  0.0000
H41  H  1.0000  0.78427  0.28690  0.21609  0.0000
H42  H  1.0000  0.58121  0.72717  0.19320  0.0000
H43  H  1.0000  0.28531  0.63946  0.28539  0.0000
H44  H  1.0000  0.71469  0.63946  0.71461  0.0000
H45  H  1.0000  0.91872  0.19916  0.30691  0.0000
H46  H  1.0000  0.28404  0.81198  0.28441  0.0000
H47  H  1.0000  0.71596  0.81198  0.71559  0.0000
H48  H  1.0000  0.08128  0.19916  0.69309  0.0000
H49  H  1.0000  0.08108  0.19833  0.30705  0.0000
H50  H  1.0000  0.91892  0.19833  0.69295  0.0000
H51  H  1.0000  0.19299  0.72670  0.58119  0.0000
H52  H  1.0000  0.58120  0.72727  0.80679  0.0000
H53  H  1.0000  0.41880  0.72727  0.19321  0.0000
H54  H  1.0000  0.78605  0.28647  0.78550  0.0000
H55  H  1.0000  0.21395  0.28647  0.21450  0.0000
H56  H  1.0000  0.30674  0.19907  0.91872  0.0000
H57  H  1.0000  0.69326  0.19907  0.08128  0.0000
H58  H  1.0000  0.17926  0.63922  0.17846  0.0000
H59  H  1.0000  0.32216  0.28592  0.67741  0.0000
H60  H  1.0000  0.82074  0.63922  0.82154  0.0000
H61  H  1.0000  0.45263  0.03761  0.50024  0.0000
H62  H  1.0000  0.67705  0.11547  0.67760  0.0000
H63  H  1.0000  0.32295  0.11547  0.32240  0.0000
H64  H  1.0000  0.54737  0.03761  0.49976  0.0000
H65  H  1.0000  0.69313  0.19829  0.91890  0.0000
H66  H  1.0000  0.17886  0.63948  0.82177  0.0000
H67  H  1.0000  0.82114  0.63948  0.17823  0.0000
H68  H  1.0000  0.80699  0.72677  0.58117  0.0000
H69  H  1.0000  0.82233  0.81122  0.17818  0.0000
H70  H  1.0000  0.17767  0.81122  0.82182  0.0000
H71  H  1.0000  0.32148  0.11417  0.67894  0.0000
H72  H  1.0000  0.67852  0.11417  0.32106  0.0000
N1  N  1.0000  -0.00000  0.29890  -0.00000  0.0000
N2  N  1.0000  -0.00000  0.58266  -0.00000  0.0000
N3  N  1.0000  0.12325  0.20027  0.00001  0.0000
N4  N  1.0000  0.50000  0.34356  0.50000  0.0000
N5  N  1.0000  0.87675  0.20027  0.99999  0.0000
N6  N  1.0000  0.50000  0.62732  0.50000  0.0000
N7  N  1.0000  0.37659  0.72549  0.50002  0.0000
N8  N  1.0000  0.99998  0.20140  0.87657  0.0000
N9  N  1.0000  0.00002  0.20140  0.12343  0.0000
N10  N  1.0000  0.50002  0.72630  0.37676  0.0000
N11  N  1.0000  0.49998  0.72630  0.62324  0.0000
N12  N  1.0000  0.62341  0.72549  0.49998  0.0000
O1  O  1.0000  -0.00000  0.86537  -0.00000  0.0000
O2  O  1.0000  0.50000  0.06041  0.50000  0.0000
O3  O  1.0000  0.91438  0.77087  0.08494  0.0000
O4  O  1.0000  0.41430  0.24805  0.41385  0.0000
O5  O  1.0000  0.50000  0.82796  0.50000  0.0000
O6  O  1.0000  0.91525  0.67905  0.91369  0.0000
O7  O  1.0000  0.08475  0.67905  0.08631  0.0000
O8  O  1.0000  0.41475  0.15688  0.41523  0.0000
O9  O  1.0000  0.58525  0.15688  0.58477  0.0000
O10  O  1.0000  0.91501  0.67969  0.08560  0.0000
O11  O  1.0000  0.58570  0.24805  0.58615  0.0000
O12  O  1.0000  0.41410  0.15361  0.58510  0.0000
O13  O  1.0000  0.08499  0.67969  0.91440  0.0000
O14  O  1.0000  0.08562  0.77087  0.91506  0.0000
O15  O  1.0000  0.41521  0.24477  0.58476  0.0000
O16  O  1.0000  0.58479  0.24477  0.41524  0.0000
O17  O  1.0000  0.91430  0.77023  0.91529  0.0000
O18  O  1.0000  0.08570  0.77023  0.08471  0.0000
O19  O  1.0000  0.58590  0.15361  0.41490  0.0000
O20  O  1.0000  -0.00000  0.09863  -0.00000  0.0000
Zn1  Zn  1.0000  -0.00000  0.20674  -0.00000  0.0000
Zn2  Zn  1.0000  -0.00000  0.66579  -0.00000  0.0000
Zn3  Zn  1.0000  0.50000  0.26031  0.50000  0.0000
Zn4  Zn  1.0000  0.50000  0.14657  0.50000  0.0000
Zn5  Zn  1.0000  0.50000  0.71973  0.50000  0.0000
Zn6  Zn  1.0000  -0.00000  0.77923  -0.00000  0.0000
